#RADIOSS STARTER
#---1----|----2----|----3----|----4----|----5----|----6----|----7----|----8----|----9----|---10----|
# DP600 single-element uniaxial tension  --  Radioss / OpenRadioss  (Starter)
#
#   units : Mg - mm - s   (force N, stress MPa, density 7.85e-9)
#           /BEGIN unit fields are MASS, LENGTH, TIME -- in that order.
#           Mg (megagram) is Radioss' code for the tonne.
#   model : 1 x 1 x 1 mm brick, 1/8 symmetry, x-face pulled to u = 0.5 mm
#   check : sig_x ~= 700 MPa at the end (see README.md)
#
#   Field widths are NOT uniform: integers take 10 columns, reals take 20.
#   The comment rulers below mark the real field edges -- keep values inside them.
#
#   run   : starter_linux64_gf -i dp600-1elem-radioss_0000.rad
#           engine_linux64_gf  -i dp600-1elem-radioss_0001.rad
#---1----|----2----|----3----|----4----|----5----|----6----|----7----|----8----|----9----|---10----|
/BEGIN
dp600-1elem-radioss
      2022         0
                  Mg                  mm                   s
                  Mg                  mm                   s
#---1----|----2----|----3----|----4----|----5----|----6----|----7----|----8----|----9----|---10----|
/TITLE
DP600 one brick, uniaxial tension
#---1----|----2----|----3----|----4----|----5----|----6----|----7----|----8----|----9----|---10----|
#-  NODES
#---1----|----2----|----3----|----4----|----5----|----6----|----7----|----8----|----9----|---10----|
/NODE
#  node_ID                   X                   Y                   Z
         1                 0.0                 0.0                 0.0
         2                 1.0                 0.0                 0.0
         3                 1.0                 1.0                 0.0
         4                 0.0                 1.0                 0.0
         5                 0.0                 0.0                 1.0
         6                 1.0                 0.0                 1.0
         7                 1.0                 1.0                 1.0
         8                 0.0                 1.0                 1.0
#---1----|----2----|----3----|----4----|----5----|----6----|----7----|----8----|----9----|---10----|
#-  MATERIAL
#---1----|----2----|----3----|----4----|----5----|----6----|----7----|----8----|----9----|---10----|
/MAT/LAW36/1
DP600  E=210 GPa  rho=7.85e-9 Mg/mm3
#              RHO_I
             7.85E-9
#                  E                  Nu           Eps_p_max               EPS_t               EPS_m
              210000                 0.3
#  N_funct   Fsmooth               Chard                Fcut               EPS_f        VP
         1         1                                                                     1
#  fct_IDp              Fscale
         0
#  fct_ID1
       100
#           Fscale_1
                   1
#           Eps_dot1
                   0
#---1----|----2----|----3----|----4----|----5----|----6----|----7----|----8----|----9----|---10----|
#-  PROPERTY
#---1----|----2----|----3----|----4----|----5----|----6----|----7----|----8----|----9----|---10----|
/PROP/SOLID/1
one brick
#   Isolid    Ismstr               Icpre               Inpts      Irot    Iframe                  dn
        24         4                   0                   0         0         0                   0
#                q_a                 q_b                   h            LAMBDA_V                MU_V
                   0                   0                   0                   0                   0
#             dt_min   istrain      IHKT
                   0         1         0
#---1----|----2----|----3----|----4----|----5----|----6----|----7----|----8----|----9----|---10----|
#-  PART AND ELEMENT
#---1----|----2----|----3----|----4----|----5----|----6----|----7----|----8----|----9----|---10----|
/PART/1
one brick
#  prop_ID    mat_ID subset_ID
         1         1         0
/BRICK/1
# brick_ID     node1     node2     node3     node4     node5     node6     node7     node8
         1         1         2         3         4         5         6         7         8
#---1----|----2----|----3----|----4----|----5----|----6----|----7----|----8----|----9----|---10----|
#-  FUNCTIONS
#---1----|----2----|----3----|----4----|----5----|----6----|----7----|----8----|----9----|---10----|
# true stress vs TRUE PLASTIC strain -- first point must be at eps_p = 0
/FUNCT/100
DP600 hardening
#                  X                   Y
                 0.0               350.0
                0.02               455.0
                0.10               560.0
                0.40               700.0
                1.00               790.0
#
# pull ramp: 0 -> 0.5 mm over 0.01 s
/FUNCT/200
pull ramp
#                  X                   Y
                 0.0                 0.0
                0.01                 0.5
#---1----|----2----|----3----|----4----|----5----|----6----|----7----|----8----|----9----|---10----|
#-  NODE GROUPS
#---1----|----2----|----3----|----4----|----5----|----6----|----7----|----8----|----9----|---10----|
/GRNOD/NODE/1
x = 0 face
         1         4         5         8
/GRNOD/NODE/2
y = 0 face
         1         2         5         6
/GRNOD/NODE/3
z = 0 face
         1         2         3         4
/GRNOD/NODE/4
x = 1 face (pulled)
         2         3         6         7
#---1----|----2----|----3----|----4----|----5----|----6----|----7----|----8----|----9----|---10----|
#-  BOUNDARY CONDITIONS
#   Trarot = TX TY TZ  wX wY wZ, six codes right justified in the 10-char field
#---1----|----2----|----3----|----4----|----5----|----6----|----7----|----8----|----9----|---10----|
/BCS/1
x symmetry
#  Tra rot   skew_ID  grnod_ID
   100 000         0         1
/BCS/2
y symmetry
#  Tra rot   skew_ID  grnod_ID
   010 000         0         2
/BCS/3
z symmetry
#  Tra rot   skew_ID  grnod_ID
   001 000         0         3
#---1----|----2----|----3----|----4----|----5----|----6----|----7----|----8----|----9----|---10----|
#-  IMPOSED DISPLACEMENT
#---1----|----2----|----3----|----4----|----5----|----6----|----7----|----8----|----9----|---10----|
/IMPDISP/1
pull x face to 0.5 mm
#   Ifunct       DIR     Iskew   Isensor   Gnod_id     Frame     Icoor
       200         X         0         0         4         0         0
#            Scale_x             Scale_y              Tstart               Tstop
                   0                   0                   0                   0
#---1----|----2----|----3----|----4----|----5----|----6----|----7----|----8----|----9----|---10----|
#-  TIME HISTORY   (the /TH blocks live in the STARTER, not in the Engine)
#---1----|----2----|----3----|----4----|----5----|----6----|----7----|----8----|----9----|---10----|
/TH/BRIC/1
brick history
#     var1      var2      var3      var4      var5      var6      var7      var8      var9     var10
DEF
#     Elid                                                      Elname
         1          cube
/TH/NODE/2
pulled node history
#     var1      var2      var3      var4      var5      var6      var7      var8      var9     var10
DEF       REACX
#   Nodeid   skew_ID                                           Nodename
         2                    pulled
#---1----|----2----|----3----|----4----|----5----|----6----|----7----|----8----|----9----|---10----|
/END
