$-------------------------------------------------------------------------------
$ Rate-dependent crushable foam, compression + unload  --  LS-DYNA
$
$   units : ton - mm - s   (force N, stress MPa, density 6.0e-11)
$   model : 1 x 1 x 1 mm hex, 1/8 symmetry
$           compress x-face to -0.3 mm over 0.003 s   (100 /s engineering)
$           then release back to 0 over the next 0.003 s
$   check : at t = 0.003 s (peak)  sig_x ~= -0.77 MPa, reaction ~= 0.77 N
$           = the 50 /s curve, because the run is at 100-143 /s and the table
$             is CLAMPED above its top rate (no extrapolation)
$
$   THIS IS THE DECK TO POINT A DROP TOWER AT.
$   *MAT_083 takes the drop-tower curves directly: TBID is a *DEFINE_TABLE of
$   nominal stress vs nominal strain, one curve per impact speed.  Vary the drop
$   height and you have the table.  The manual says as much -- Hirth/Du Bois/
$   Weimar improvements permit "load curves generated by drop tower test to be directly
$   input".
$
$   WHY NOT *MAT_063 (the quasi-static foam deck):
$     *MAT_063 unloads FULLY ELASTICALLY -- no hysteresis, no rate effect.
$     A drop tower measures exactly those two things, so once you have the data
$     that card throws most of it away.  HU below is the hysteretic unloading
$     factor: 1.0 = no energy dissipation, smaller = more.
$-------------------------------------------------------------------------------
*KEYWORD
*TITLE
Rate-dependent foam, compress and release (ton-mm-s)
$
$===============================================================================
$ CONTROL / OUTPUT
$===============================================================================
*CONTROL_TERMINATION
$#  endtim    endcyc     dtmin    endeng    endmas     nosol
     0.006         0       0.0       0.0       0.0         0
*CONTROL_ENERGY
$#    hgen      rwen    slnten     rylen
         2         2         2         2
*DATABASE_GLSTAT
$#      dt    binary      lcur     ioopt
   1.0E-05         0         0         1
*DATABASE_ELOUT
   1.0E-05         0         0         1
*DATABASE_NODFOR
   1.0E-05         0         0         1
*DATABASE_BINARY_D3PLOT
$#      dt      lcdt      beam     npltc    psetid
   2.0E-04
*DATABASE_HISTORY_SOLID
$#    id1
         1
*DATABASE_NODAL_FORCE_GROUP
$#    nsid       cid
         4
$
$===============================================================================
$ PART / SECTION / MATERIAL
$===============================================================================
*PART
one hex, rate-dependent foam
$#     pid     secid       mid     eosid      hgid      grav    adpopt      tmid
         1         1         1         0         0         0         0         0
*SECTION_SOLID_TITLE
constant stress hex (ELFORM=1)
$#   secid    elform       aet
         1         1         0
$
$ Card 1  MID RO E KCON TC FAIL DAMP TBID
$ Card 2  BVFLAG SFLAG RFLAG TFLAG PVID SRAF REF HU
$ Card 3  D0 N0 N1 N2 N3 C0 C1 C2      (ignored when TBID > 0, cards still required)
$ Card 4  C3 C4 C5 AIJ SIJ MINR MAXR SHAPE
*MAT_FU_CHANG_FOAM_TITLE
EPP-like foam  60 kg/m3   drop-tower curves in table 300
$#     mid        ro         e      kcon        tc      fail      damp      tbid
         1 6.000E-11     50.00       0.0      0.35       0.0      0.05       300
$#  bvflag     sflag     rflag     tflag      pvid      sraf       ref        hu
       1.0       0.0       0.0       0.0       0.0       0.0       0.0      0.70
$#      d0        n0        n1        n2        n3        c0        c1        c2
       0.0       0.0       0.0       0.0       0.0       0.0       0.0       0.0
$#      c3        c4        c5       aij       sij      minr      maxr     shape
       0.0       0.0       0.0       0.0       0.0       0.0       0.0       0.0
$
$===============================================================================
$ DROP-TOWER TABLE : one stress-strain curve per impact rate
$   nominal stress vs nominal strain, compression entered POSITIVE
$===============================================================================
*DEFINE_TABLE_TITLE
foam crush curves vs strain rate
$#    tbid
       300
$#              value      (strain rate, ascending)
              0.0010
             50.0000
*DEFINE_CURVE_TITLE
foam crush 0.001/s  (quasi-static, from the slow compression test)
$#    lcid      sidr       sfa       sfo      offa      offo    dattyp
       301         0     1.000     1.000     0.000     0.000         0
$#                a1                  o1
              0.0000              0.3500
              0.0500              0.3800
              0.1000              0.4200
              0.3000              0.5500
              0.5000              0.9000
              0.7000              3.0000
*DEFINE_CURVE_TITLE
foam crush 50/s  (drop tower)   = quasi-static x 1.40
$#    lcid      sidr       sfa       sfo      offa      offo    dattyp
       302         0     1.000     1.000     0.000     0.000         0
$#                a1                  o1
              0.0000              0.4900
              0.0500              0.5320
              0.1000              0.5880
              0.3000              0.7700
              0.5000              1.2600
              0.7000              4.2000
$
$===============================================================================
$ MESH
$===============================================================================
*NODE
$#   nid               x               y               z      tc      rc
       1             0.0             0.0             0.0       0       0
       2             1.0             0.0             0.0       0       0
       3             1.0             1.0             0.0       0       0
       4             0.0             1.0             0.0       0       0
       5             0.0             0.0             1.0       0       0
       6             1.0             0.0             1.0       0       0
       7             1.0             1.0             1.0       0       0
       8             0.0             1.0             1.0       0       0
*ELEMENT_SOLID
$#   eid     pid      n1      n2      n3      n4      n5      n6      n7      n8
       1       1       1       2       3       4       5       6       7       8
$
$===============================================================================
$ NODE SETS  (1/8 symmetry + pushed face)
$===============================================================================
*SET_NODE_LIST_TITLE
x = 0 face
$#     sid       da1       da2       da3       da4
         1       0.0       0.0       0.0       0.0
$#    nid1      nid2      nid3      nid4
         1         4         5         8
*SET_NODE_LIST_TITLE
y = 0 face
         2       0.0       0.0       0.0       0.0
         1         2         5         6
*SET_NODE_LIST_TITLE
z = 0 face
         3       0.0       0.0       0.0       0.0
         1         2         3         4
*SET_NODE_LIST_TITLE
x = 1 face (pushed)
         4       0.0       0.0       0.0       0.0
         2         3         6         7
$
$===============================================================================
$ BOUNDARY CONDITIONS
$===============================================================================
*BOUNDARY_SPC_SET
$#    nsid       cid      dofx      dofy      dofz     dofrx     dofry     dofrz
         1         0         1         0         0         0         0         0
         2         0         0         1         0         0         0         0
         3         0         0         0         1         0         0         0
$
*BOUNDARY_PRESCRIBED_MOTION_SET
$#    nsid       dof       vad      lcid        sf       vid     death     birth
         4         1         2       200     1.000         0 1.000E+28     0.000
$
$ compress at 100 mm/s then release at 100 mm/s -- the unload branch is what
$ separates *MAT_083 from *MAT_063
*DEFINE_CURVE_TITLE
crush then release
$#    lcid      sidr       sfa       sfo      offa      offo    dattyp
       200         0     1.000     1.000     0.000     0.000         0
$#                a1                  o1
              0.0000              0.0000
              0.0030             -0.3000
              0.0060              0.0000
$
*END
