#RADIOSS STARTER
#---1----|----2----|----3----|----4----|----5----|----6----|----7----|----8----|----9----|---10----|
# Quasi-isotropic laminate, single shell element  --  Radioss / OpenRadioss
#
#   units : Mg - mm - s   (force N, stress MPa, density 1.57e-9)
#   model : 1 x 1 mm shell, 4 plies [0/45/-45/90] x 0.125 mm = 0.5 mm
#           membrane only, pulled to ux = 0.005 mm  -> eps_x = 0.5%
#   check : laminate average sig_x ~= 260.45 MPa, edge reaction ~= 130.23 N
#           (CLT: E_eff = 52090.3 MPa)
#
#   Card layout checked against a real OpenRadioss QA deck (LOI25).
#---1----|----2----|----3----|----4----|----5----|----6----|----7----|----8----|----9----|---10----|
/BEGIN
laminate-1elem-radioss
      2022         0
                  Mg                  mm                   s
                  Mg                  mm                   s
#---1----|----2----|----3----|----4----|----5----|----6----|----7----|----8----|----9----|---10----|
/TITLE
QI laminate one shell, uniaxial tension
#---1----|----2----|----3----|----4----|----5----|----6----|----7----|----8----|----9----|---10----|
#-  NODES
#---1----|----2----|----3----|----4----|----5----|----6----|----7----|----8----|----9----|---10----|
/NODE
#  node_ID                   X                   Y                   Z
         1                 0.0                 0.0                 0.0
         2                 1.0                 0.0                 0.0
         3                 1.0                 1.0                 0.0
         4                 0.0                 1.0                 0.0
#---1----|----2----|----3----|----4----|----5----|----6----|----7----|----8----|----9----|---10----|
#-  PLY MATERIAL   /MAT/LAW25 (COMPSH), Tsai-Wu formulation (Iform = 0)
#---1----|----2----|----3----|----4----|----5----|----6----|----7----|----8----|----9----|---10----|
# NOTE: this material and property block is now laid out to match a REAL
# OpenRadioss QA deck (qa-tests/miniqa/LOIS/LOI25/.../L25CRASB_0000.rad).
# LAW25 has 18 value cards, not the 8 a summary page suggests, and
# /PROP/TYPE11 has an Istrain field and a Vx/Vy/Vz card that are easy to miss.
/MAT/LAW25/1
CFRP UD ply  CRASURV (Iform=1)  E11=135 GPa  E22=9 GPa
#              RHO_I
             1.57E-9
#                E11                 E22                NU12     Iform                           E33
              135000                9000                 0.3         1                          9000
#                G12                 G23                 G31              EPS_f1              EPS_f2
                5000                3500                5000                   0                   0
#             EPS_t1              EPS_m1              EPS_t2              EPS_m2                dmax
                 1.0                 1.2                 1.0                 1.2               0.999
#              Wpmax               Wpref      Ioff                         ratio
                1E20                   1         0                             0
#                  c          EPS_rate_0               alpha                              ICC_global
                   0                   0                   0                                       0
#            sig_1yt                b_1t                n_1t           sig_1maxt                c_1t
                1500                   0                   1                2200                   0
#            EPS_1t1             EPS_2t1          SIGMA_rst1            Wpmax_t1
                   0                   0                   0                   0
#            sig_2yt                b_2t                n_2t           sig_2maxt                c_2t
                  55                   0                   1                  60                   0
#            EPS_1t2             EPS_2t2            sig_rst2            Wpmax_t2
                   0                   0                   0                   0
#            sig_1yc                b_1c                n_1c           sig_1maxc                c_1c
                1200                   0                   1                1400                   0
#            EPS_1c1             EPS_2c1            sig_rsc1            Wpmax_c1
                   0                   0                   0                   0
#            sig_2yc                b_2c                n_2c           sig_2maxc                c_2c
                 180                   0                   1                 200                   0
#            EPS_1c2             EPS_2c2            sig_rsc2            Wpmax_c2
                   0                   0                   0                   0
#           sig_12yt               b_12t               n_12t          sig_12maxt               c_12t
                  80                   0                   1                  90                   0
#           EPS_1t12            EPS_2t12           sig_rst12           Wpmax_t12
                   0                   0                   0                   0
#          GAMMA_ini           GAMMA_max               d3max
                   0                   0                   0
#  Fsmooth                Fcut
         0                   0
#---1----|----2----|----3----|----4----|----5----|----6----|----7----|----8----|----9----|---10----|
#-  LAYERED SHELL PROPERTY
#---1----|----2----|----3----|----4----|----5----|----6----|----7----|----8----|----9----|---10----|
/PROP/TYPE11/1
QI laminate [0/45/-45/90]
#   Ishell    Ismstr     Ish3n    Idrill                            P_thick_fail
        24         2         0         0                                       0
#                 hm                  hf                  hr                  dm                  dn
                   0                   0                   0                   0                   0
#        N   Istrain               Thick              Ashear              Ithick     Iplas
         4         0                 0.5                   0                   1         1
#                 Vx                  Vy                  Vz   Skew_ID     Iorth      Ipos
                   1                   0                   0         0         0         0
#                Phi                   t                   Z    mat_ID
                 0.0               0.125                   0         1
                45.0               0.125                   0         1
               -45.0               0.125                   0         1
                90.0               0.125                   0         1
#---1----|----2----|----3----|----4----|----5----|----6----|----7----|----8----|----9----|---10----|
#-  PART AND ELEMENT
#---1----|----2----|----3----|----4----|----5----|----6----|----7----|----8----|----9----|---10----|
/PART/1
QI laminate shell
#  prop_ID    mat_ID subset_ID
         1         1         0
/SHELL/1
# shell_ID     node1     node2     node3     node4
         1         1         2         3         4
#---1----|----2----|----3----|----4----|----5----|----6----|----7----|----8----|----9----|---10----|
#-  FUNCTIONS
#---1----|----2----|----3----|----4----|----5----|----6----|----7----|----8----|----9----|---10----|
# pull ramp: 0 -> 0.005 mm over 0.001 s
/FUNCT/200
pull ramp
#                  X                   Y
                 0.0                 0.0
               0.001               0.005
#---1----|----2----|----3----|----4----|----5----|----6----|----7----|----8----|----9----|---10----|
#-  NODE GROUPS
#---1----|----2----|----3----|----4----|----5----|----6----|----7----|----8----|----9----|---10----|
/GRNOD/NODE/1
x = 0 edge
         1         4
/GRNOD/NODE/2
y = 0 edge
         1         2
/GRNOD/NODE/3
all nodes
         1         2         3         4
/GRNOD/NODE/4
x = 1 edge (pulled)
         2         3
#---1----|----2----|----3----|----4----|----5----|----6----|----7----|----8----|----9----|---10----|
#-  BOUNDARY CONDITIONS
#   Trarot = TX TY TZ  wX wY wZ, six codes right justified in the 10-char field
#---1----|----2----|----3----|----4----|----5----|----6----|----7----|----8----|----9----|---10----|
/BCS/1
x edge
#  Tra rot   skew_ID  grnod_ID
   100 000         0         1
/BCS/2
y edge
#  Tra rot   skew_ID  grnod_ID
   010 000         0         2
/BCS/3
membrane only: uz and all rotations
#  Tra rot   skew_ID  grnod_ID
   001 111         0         3
#---1----|----2----|----3----|----4----|----5----|----6----|----7----|----8----|----9----|---10----|
#-  IMPOSED DISPLACEMENT
#---1----|----2----|----3----|----4----|----5----|----6----|----7----|----8----|----9----|---10----|
/IMPDISP/1
pull x edge to 0.005 mm
#   Ifunct       DIR     Iskew   Isensor   Gnod_id     Frame     Icoor
       200         X         0         0         4         0         0
#            Scale_x             Scale_y              Tstart               Tstop
                   0                   0                   0                   0
#---1----|----2----|----3----|----4----|----5----|----6----|----7----|----8----|----9----|---10----|
#-  TIME HISTORY
#---1----|----2----|----3----|----4----|----5----|----6----|----7----|----8----|----9----|---10----|
/TH/SHEL/1
shell history
#     var1      var2      var3      var4      var5      var6      var7      var8      var9     var10
DEF
#     Elid                                                      Elname
         1          skin
/TH/NODE/2
pulled node history
#     var1      var2      var3      var4      var5      var6      var7      var8      var9     var10
DEF       REACX
#   Nodeid   skew_ID                                           Nodename
         2                    pulled
#---1----|----2----|----3----|----4----|----5----|----6----|----7----|----8----|----9----|---10----|
/END
