#RADIOSS STARTER
#---1----|----2----|----3----|----4----|----5----|----6----|----7----|----8----|----9----|---10----|
# Rate-dependent plasticity, single element  --  Radioss / OpenRadioss
#
#   units : Mg - mm - s   (force N, stress MPa)
#   model : same 1 mm brick and 1/8 symmetry as the DP600 quasi-static deck,
#           pulled on an EXPONENTIAL history so the TRUE strain rate is exactly
#           100 /s :  u(t) = exp(100 t) - 1 ,  t = 0 .. 0.00405465 s
#   check : sig_x ~= 770.30 MPa , reaction ~= 514.29 N
#
#   RADIOSS EXPRESSES THE RATE EFFECT DIFFERENTLY FROM THE OTHER THREE.
#   LS-DYNA (C,P), Abaqus (*RATE DEPENDENT POWER LAW) and Ansys (TB,RATE
#   PERZYNA) all multiply one static curve by an ANALYTIC Cowper-Symonds
#   factor.  /MAT/LAW36 has no such factor -- it takes one CURVE PER RATE.
#   So the same physics is entered here as two tabulated curves:
#       0.001 /s : the quasi-static curve
#       100   /s : the same curve x 1.10   (= the Cowper-Symonds factor at 100/s)
#   At 100 /s the two formulations agree; away from it they do not, which is
#   the point worth remembering when a deck is ported.
#
#   Fsmooth = 2 selects LOGARITHMIC interpolation between the rates.  With
#   linear interpolation (1) a rate three decades below the top curve would sit
#   almost on top of it.
#---1----|----2----|----3----|----4----|----5----|----6----|----7----|----8----|----9----|---10----|
/BEGIN
rate-1elem-radioss
      2022         0
                  Mg                  mm                   s
                  Mg                  mm                   s
#---1----|----2----|----3----|----4----|----5----|----6----|----7----|----8----|----9----|---10----|
/TITLE
Rate-dependent plasticity one brick, 100/s
#---1----|----2----|----3----|----4----|----5----|----6----|----7----|----8----|----9----|---10----|
#-  NODES
#---1----|----2----|----3----|----4----|----5----|----6----|----7----|----8----|----9----|---10----|
/NODE
#  node_ID                   X                   Y                   Z
         1                 0.0                 0.0                 0.0
         2                 1.0                 0.0                 0.0
         3                 1.0                 1.0                 0.0
         4                 0.0                 1.0                 0.0
         5                 0.0                 0.0                 1.0
         6                 1.0                 0.0                 1.0
         7                 1.0                 1.0                 1.0
         8                 0.0                 1.0                 1.0
#---1----|----2----|----3----|----4----|----5----|----6----|----7----|----8----|----9----|---10----|
#-  MATERIAL
#---1----|----2----|----3----|----4----|----5----|----6----|----7----|----8----|----9----|---10----|
/MAT/LAW36/1
DP600 tabulated, two strain rates
#              RHO_I
             7.85E-9
#                  E                  Nu           Eps_p_max               EPS_t               EPS_m
              210000                 0.3
#  N_funct   Fsmooth               Chard                Fcut               EPS_f        VP
         2         2                                                                     1
#  fct_IDp              Fscale
         0
#  fct_ID1   fct_ID2
       100       101
#           Fscale_1            Fscale_2
                   1                   1
#           Eps_dot1            Eps_dot2
               0.001                 100
#---1----|----2----|----3----|----4----|----5----|----6----|----7----|----8----|----9----|---10----|
#-  FUNCTIONS
#---1----|----2----|----3----|----4----|----5----|----6----|----7----|----8----|----9----|---10----|
# true stress vs TRUE PLASTIC strain, quasi-static (0.001 /s)
/FUNCT/100
DP600 hardening 0.001/s
#                  X                   Y
                 0.0               350.0
                0.02               455.0
                0.10               560.0
                0.40               700.0
                1.00               790.0
#
# the same curve x 1.10  ->  the Cowper-Symonds factor at 100 /s
/FUNCT/101
DP600 hardening 100/s
#                  X                   Y
                 0.0               385.0
                0.02               500.5
                0.10               616.0
                0.40               770.0
                1.00               869.0
#
# u(t) = exp(100 t) - 1  ->  true strain rate is exactly 100 /s
/FUNCT/200
exponential pull, constant true strain rate 100/s
#                  X                   Y
           0.0000000            0.000000
           0.0002027            0.020480
           0.0004055            0.041380
           0.0006082            0.062707
           0.0008109            0.084472
           0.0010137            0.106682
           0.0012164            0.129347
           0.0014191            0.152476
           0.0016219            0.176079
           0.0018246            0.200165
           0.0020273            0.224745
           0.0022301            0.249828
           0.0024328            0.275425
           0.0026355            0.301545
           0.0028383            0.328201
           0.0030410            0.355403
           0.0032437            0.383162
           0.0034465            0.411489
           0.0036492            0.440397
           0.0038519            0.469896
           0.0040547            0.500000
#---1----|----2----|----3----|----4----|----5----|----6----|----7----|----8----|----9----|---10----|
#-  PROPERTY
#---1----|----2----|----3----|----4----|----5----|----6----|----7----|----8----|----9----|---10----|
/PROP/SOLID/1
one brick
#   Isolid    Ismstr               Icpre               Inpts      Irot    Iframe                  dn
        24         4                   0                   0         0         0                   0
#                q_a                 q_b                   h            LAMBDA_V                MU_V
                   0                   0                   0                   0                   0
#             dt_min   istrain      IHKT
                   0         1         0
#---1----|----2----|----3----|----4----|----5----|----6----|----7----|----8----|----9----|---10----|
#-  PART AND ELEMENT
#---1----|----2----|----3----|----4----|----5----|----6----|----7----|----8----|----9----|---10----|
/PART/1
one brick
#  prop_ID    mat_ID subset_ID
         1         1         0
/BRICK/1
# brick_ID     node1     node2     node3     node4     node5     node6     node7     node8
         1         1         2         3         4         5         6         7         8
#---1----|----2----|----3----|----4----|----5----|----6----|----7----|----8----|----9----|---10----|
#-  NODE GROUPS
#---1----|----2----|----3----|----4----|----5----|----6----|----7----|----8----|----9----|---10----|
/GRNOD/NODE/1
x = 0 face
         1         4         5         8
/GRNOD/NODE/2
y = 0 face
         1         2         5         6
/GRNOD/NODE/3
z = 0 face
         1         2         3         4
/GRNOD/NODE/4
x = 1 face (pulled)
         2         3         6         7
#---1----|----2----|----3----|----4----|----5----|----6----|----7----|----8----|----9----|---10----|
#-  BOUNDARY CONDITIONS
#   Trarot = TX TY TZ  wX wY wZ, six codes right justified in the 10-char field
#---1----|----2----|----3----|----4----|----5----|----6----|----7----|----8----|----9----|---10----|
/BCS/1
x symmetry
#  Tra rot   skew_ID  grnod_ID
   100 000         0         1
/BCS/2
y symmetry
#  Tra rot   skew_ID  grnod_ID
   010 000         0         2
/BCS/3
z symmetry
#  Tra rot   skew_ID  grnod_ID
   001 000         0         3
#---1----|----2----|----3----|----4----|----5----|----6----|----7----|----8----|----9----|---10----|
#-  IMPOSED DISPLACEMENT
#---1----|----2----|----3----|----4----|----5----|----6----|----7----|----8----|----9----|---10----|
/IMPDISP/1
exponential pull to 0.5 mm
#   Ifunct       DIR     Iskew   Isensor   Gnod_id     Frame     Icoor
       200         X         0         0         4         0         0
#            Scale_x             Scale_y              Tstart               Tstop
                   0                   0                   0                   0
#---1----|----2----|----3----|----4----|----5----|----6----|----7----|----8----|----9----|---10----|
#-  TIME HISTORY
#---1----|----2----|----3----|----4----|----5----|----6----|----7----|----8----|----9----|---10----|
/TH/BRIC/1
brick history
#     var1      var2      var3      var4      var5      var6      var7      var8      var9     var10
DEF
#     Elid                                                      Elname
         1          cube
/TH/NODE/2
pulled node history
#     var1      var2      var3      var4      var5      var6      var7      var8      var9     var10
DEF       REACX
#   Nodeid   skew_ID                                           Nodename
         2                    pulled
#---1----|----2----|----3----|----4----|----5----|----6----|----7----|----8----|----9----|---10----|
/END
