#RADIOSS STARTER
#---1----|----2----|----3----|----4----|----5----|----6----|----7----|----8----|----9----|---10----|
# Rubber single-element uniaxial tension  --  Radioss / OpenRadioss  (Starter)
#
#   units : Mg - mm - s   (force N, stress MPa, density 1.10e-9)
#   model : 1 x 1 x 1 mm brick, 1/8 symmetry, x-face pulled to u = 1.0 mm
#           (stretch lambda = 2, i.e. 100% engineering strain)
#   check : sig_x ~= 4.7162 MPa, reaction on the pulled face ~= 2.3606 N
#
#           The closed-form INCOMPRESSIBLE answer is 4.7250 MPa; these decks
#           set K/G = 1000, and that 0.1% of volume change lowers it to 4.7162.
#           J = 1.001048 at the end, so the section is 0.500524 mm2, not 0.5.
#   material : /MAT/LAW42 (OGDEN).  Mooney-Rivlin is the Ogden special case
#              with two terms:
#                 mu_1 =  2*C10 =  1.2 ,  alpha_1 =  2
#                 mu_2 = -2*C01 = -0.3 ,  alpha_2 = -2
#              which reproduces W = C10(I1-3) + C01(I2-3) exactly.
#              nu = 0.4995 gives K/G ~ 1000 with G0 = 2(C10+C01) = 1.5 MPa.
#
#   Card layout checked against a real OpenRadioss QA deck
#   (qa-tests/miniqa/REFERENCE_STATE_FILES/REFSTA/SOLIDES/law42).
#   mu and alpha are FIVE per card over TWO cards each -- the empty second
#   cards must be present or the alpha line is read as mu_6..mu_10.
#---1----|----2----|----3----|----4----|----5----|----6----|----7----|----8----|----9----|---10----|
/BEGIN
rubber-1elem-radioss
      2022         0
                  Mg                  mm                   s
                  Mg                  mm                   s
#---1----|----2----|----3----|----4----|----5----|----6----|----7----|----8----|----9----|---10----|
/TITLE
Rubber one brick, uniaxial tension
#---1----|----2----|----3----|----4----|----5----|----6----|----7----|----8----|----9----|---10----|
#-  NODES
#---1----|----2----|----3----|----4----|----5----|----6----|----7----|----8----|----9----|---10----|
/NODE
#  node_ID                   X                   Y                   Z
         1                 0.0                 0.0                 0.0
         2                 1.0                 0.0                 0.0
         3                 1.0                 1.0                 0.0
         4                 0.0                 1.0                 0.0
         5                 0.0                 0.0                 1.0
         6                 1.0                 0.0                 1.0
         7                 1.0                 1.0                 1.0
         8                 0.0                 1.0                 1.0
#---1----|----2----|----3----|----4----|----5----|----6----|----7----|----8----|----9----|---10----|
#-  MATERIAL
#---1----|----2----|----3----|----4----|----5----|----6----|----7----|----8----|----9----|---10----|
/MAT/OGDEN/1
Mooney-Rivlin as 2-term Ogden   C10=0.6  C01=0.15 MPa
#              RHO_I
              1.1E-9
#                 Nu           sigma_cut           funIDbulk         Fscale_bulk         M     Iform
              0.4995                   0                   0                   0         0         0
#               Mu_1                Mu_2                Mu_3                Mu_4                Mu_5
                 1.2                -0.3                   0                   0                   0
# blank card (Mu_6..Mu_10) -- MUST be present, the reader expects two mu cards

#            alpha_1             alpha_2             alpha_3             alpha_4             alpha_5
                   2                  -2                   0                   0                   0
# blank card (alpha_6..alpha_10)

#---1----|----2----|----3----|----4----|----5----|----6----|----7----|----8----|----9----|---10----|
#-  PROPERTY
#---1----|----2----|----3----|----4----|----5----|----6----|----7----|----8----|----9----|---10----|
/PROP/SOLID/1
one brick, rubber
#   Isolid    Ismstr               Icpre               Inpts      Irot    Iframe                  dn
        24         4                   1                   0         0         0                   0
#                q_a                 q_b                   h            LAMBDA_V                MU_V
                   0                   0                   0                   0                   0
#             dt_min   istrain      IHKT
                   0         1         0
#---1----|----2----|----3----|----4----|----5----|----6----|----7----|----8----|----9----|---10----|
#-  PART AND ELEMENT
#---1----|----2----|----3----|----4----|----5----|----6----|----7----|----8----|----9----|---10----|
/PART/1
one brick, rubber
#  prop_ID    mat_ID subset_ID
         1         1         0
/BRICK/1
# brick_ID     node1     node2     node3     node4     node5     node6     node7     node8
         1         1         2         3         4         5         6         7         8
#---1----|----2----|----3----|----4----|----5----|----6----|----7----|----8----|----9----|---10----|
#-  FUNCTIONS
#---1----|----2----|----3----|----4----|----5----|----6----|----7----|----8----|----9----|---10----|
# stretch ramp: 0 -> 1.0 mm over 0.01 s
/FUNCT/200
stretch ramp
#                  X                   Y
                 0.0                 0.0
                0.01                 1.0
#---1----|----2----|----3----|----4----|----5----|----6----|----7----|----8----|----9----|---10----|
#-  NODE GROUPS
#---1----|----2----|----3----|----4----|----5----|----6----|----7----|----8----|----9----|---10----|
/GRNOD/NODE/1
x = 0 face
         1         4         5         8
/GRNOD/NODE/2
y = 0 face
         1         2         5         6
/GRNOD/NODE/3
z = 0 face
         1         2         3         4
/GRNOD/NODE/4
x = 1 face (pulled)
         2         3         6         7
#---1----|----2----|----3----|----4----|----5----|----6----|----7----|----8----|----9----|---10----|
#-  BOUNDARY CONDITIONS
#   Trarot = TX TY TZ  wX wY wZ, six codes right justified in the 10-char field
#---1----|----2----|----3----|----4----|----5----|----6----|----7----|----8----|----9----|---10----|
/BCS/1
x symmetry
#  Tra rot   skew_ID  grnod_ID
   100 000         0         1
/BCS/2
y symmetry
#  Tra rot   skew_ID  grnod_ID
   010 000         0         2
/BCS/3
z symmetry
#  Tra rot   skew_ID  grnod_ID
   001 000         0         3
#---1----|----2----|----3----|----4----|----5----|----6----|----7----|----8----|----9----|---10----|
#-  IMPOSED DISPLACEMENT
#---1----|----2----|----3----|----4----|----5----|----6----|----7----|----8----|----9----|---10----|
/IMPDISP/1
stretch x face to 1.0 mm
#   Ifunct       DIR     Iskew   Isensor   Gnod_id     Frame     Icoor
       200         X         0         0         4         0         0
#            Scale_x             Scale_y              Tstart               Tstop
                   0                   0                   0                   0
#---1----|----2----|----3----|----4----|----5----|----6----|----7----|----8----|----9----|---10----|
#-  TIME HISTORY   (the /TH blocks live in the STARTER, not in the Engine)
#---1----|----2----|----3----|----4----|----5----|----6----|----7----|----8----|----9----|---10----|
/TH/BRIC/1
brick history
#     var1      var2      var3      var4      var5      var6      var7      var8      var9     var10
DEF
#     Elid                                                      Elname
         1          cube
/TH/NODE/2
pulled node history
#     var1      var2      var3      var4      var5      var6      var7      var8      var9     var10
DEF       REACX
#   Nodeid   skew_ID                                           Nodename
         2                    pulled
#---1----|----2----|----3----|----4----|----5----|----6----|----7----|----8----|----9----|---10----|
/END
