$$------------------------------------------------------------------------------
$$ Temperature-dependent plasticity, single element  --  Altair OptiStruct
$$
$$   units : mm - N - tonne - s   (stress MPa)
$$   model : same 1 mm CHEXA and 1/8 symmetry as the DP600 quasi-static deck,
$$           held at a uniform 200 C and pulled to u = 0.5 mm
$$   check : sigma_x ~= 600.31 MPa , reaction ~= 400.69 N
$$
$$   Same two mechanisms as the Nastran deck: MATT1 for the elastic constants,
$$   TABLEST for the temperature-dependent stress-strain curve.
$$   PARAM,LGDISP,1 + PARAM,HASHASSM,YES for the large strain solution.
$$------------------------------------------------------------------------------
$$ I/O Options
SCREEN,OUT
OUTPUT,H3D
DISPLACEMENT(H3D) = ALL
STRESS(H3D)       = ALL
STRAIN(H3D)       = ALL
SPCFORCE(H3D)     = ALL
$$
SUBCASE 1
  LABEL    = pull at 200 C
  ANALYSIS = NLSTAT
  SPC      = 1
  LOAD     = 2
  NLPARM   = 10
  TEMPERATURE(INITIAL) = 3
  TEMPERATURE(LOAD)    = 3
$$
BEGIN BULK
$
PARAM,LGDISP,1
PARAM,HASHASSM,YES
$
$       ID      NINC    DT      KMETHOD KSTEP   MAXITER CONV
NLPARM  10      50              AUTO    5       25      UPW
$
$===============================================================================
$ MESH
$===============================================================================
GRID    1               0.0     0.0     0.0
GRID    2               1.0     0.0     0.0
GRID    3               1.0     1.0     0.0
GRID    4               0.0     1.0     0.0
GRID    5               0.0     0.0     1.0
GRID    6               1.0     0.0     1.0
GRID    7               1.0     1.0     1.0
GRID    8               0.0     1.0     1.0
$
CHEXA   1       1       1       2       3       4       5       6
+       7       8
$
PSOLID  1       1       0
$
$===============================================================================
$ MATERIAL
$===============================================================================
$       MID     E       G       NU      RHO     A       TREF
MAT1    1       210000.         0.3     7.85-9          20.0
$ MATT1 points at TABLEMi curves: field 2 = E(T), field 4 = NU(T)
MATT1   1       300
$       MID     TID     TYPE    H       YF      HR      LIMIT1
MATS1   1       500     PLASTIC         1       1       350.0
$
$ E versus temperature
TABLEM1 300
+       20.0    210000. 200.0   198000. ENDT
$
$ TABLEST maps TEMPERATURE -> TABLES1 id, so the whole stress-strain curve
$ changes with temperature, not just a scale factor.
TABLEST 500
+       20.0    501     200.0   502     ENDT
$
$ stress vs TOTAL strain at 20 C   (second point = 350/210000)
TABLES1 501
+       .00000000       .0016667350     .0221667455     .1026667560
+       .4033333700     1.003761790
+       ENDT
$
$ stress vs TOTAL strain at 200 C  (second point = 300/198000)
TABLES1 502
+       .00000000       .0015152300     .0219697390     .1024242480
+       .4030303600     1.003419677
+       ENDT
$
$===============================================================================
$ BOUNDARY CONDITIONS   (1/8 symmetry + enforced displacement)
$===============================================================================
SPC1    1       1       1       4       5       8
SPC1    1       2       1       2       5       6
SPC1    1       3       1       2       3       4
SPC1    1       1       2       3       6       7
$
SPCD    2       2       1       0.5     3       1       0.5
SPCD    2       6       1       0.5     7       1       0.5
$
$
$ uniform 200 C over the whole model
TEMPD   3       200.0
$
ENDDATA
